*2023112027-ritama_sanyal
.include TSMC_180nm.txt
.param SUPPLY=1.8V
.param LAMBDA=0.09u
.param length={2*LAMBDA}
.param w={6*LAMBDA}
.global gnd vdd
.option scale=0.09u

Vdd vdd gnd 'SUPPLY'

vcin cin gnd pulse 1.8 0 0ns 10ps 10ps 1.5ns 3ns
vy1 y1in gnd pulse 1.8 0 0ns 10ps 10ps 3ns 6ns
vy2 y2in gnd pulse 1.8 0 0ns 10ps 10ps 6ns 12ns
vy3 y3in gnd pulse 1.8 0 0ns 10ps 10ps 80ns 160ns
vy4 y4in gnd pulse 1.8 0 0ns 10ps 10ps 160ns 320ns
vx1 x1in gnd pulse 1.8 0 0ns 10ps 10ps 320ns 740ns
vx2 x2in gnd pulse 1.8 0 0ns 10ps 10ps 1080ns 2160ns
vx3 x3in gnd pulse 1.8 0 0ns 10ps 10ps 2160ns 4320ns
vx4 x4in gnd pulse 1.8 0 0ns 10ps 10ps 4320ns 8640ns

.subckt nand_ckt y a b w vdd gnd
  M1 y a vdd vdd CMOSP W={2*w} L={length} AS={5*2*w*LAMBDA} PS={10*LAMBDA+2*2*w} AD={5*2*w*LAMBDA} PD={10*LAMBDA+2*2*w}
  M2 y b vdd vdd CMOSP W={2*w} L={length} AS={5*2*w*LAMBDA} PS={10*LAMBDA+2*2*w} AD={5*2*w*LAMBDA} PD={10*LAMBDA+2*2*w}
  M3 y a l gnd CMOSN W={2*w} L={length} AS={5*2*w*LAMBDA} PS={10*LAMBDA+2*2*w} AD={5*2*w*LAMBDA} PD={10*LAMBDA+2*2*w}
  M4 l b gnd gnd CMOSN W={2*w} L={length} AS={5*2*w*LAMBDA} PS={10*LAMBDA+2*2*w} AD={5*2*w*LAMBDA} PD={10*LAMBDA+2*2*w}
.ends nand_ckt

.subckt nor_ckt y a b w vdd gnd
  M1 l a vdd vdd CMOSP W={4*w} L={length} AS={5*4*w*LAMBDA} 
  + PS={10*LAMBDA+2*4*w} AD={5*4*w*LAMBDA} PD={10*LAMBDA+2*4*w}

  M2 y b l vdd CMOSP W={4*w} L={length} AS={5*4*w*LAMBDA} 
  + PS={10*LAMBDA+2*4*w} AD={5*4*w*LAMBDA} PD={10*LAMBDA+2*4*w}

  M3 y a gnd gnd CMOSN W={w} L={length} AS={5*w*LAMBDA} 
  + PS={10*LAMBDA+2*w} AD={5*w*LAMBDA} PD={10*LAMBDA+2*w}

  M4 y b gnd gnd CMOSN W={w} L={length} AS={5*w*LAMBDA} 
  + PS={10*LAMBDA+2*w} AD={5*w*LAMBDA} PD={10*LAMBDA+2*w}
.ends nor_ckt

.subckt inv y x w vdd gnd
  M1 y x vdd vdd CMOSP W={2*w} L={length} AS={5*2*w*LAMBDA} 
  + PS={10*LAMBDA+2*2*w} AD={5*2*w*LAMBDA} PD={10*LAMBDA+2*2*w}

  M2 y x gnd gnd CMOSN W={w} L={length} AS={5*w*LAMBDA} 
  + PS={10*LAMBDA+2*w} AD={5*w*LAMBDA} PD={10*LAMBDA+2*w}
.ends inv

.subckt xor_ckt y a b w vdd gnd  
  x1 abar a w vdd gnd inv
  x2 bbar b w vdd gnd inv

  M1 l1 a vdd vdd CMOSP W={4*w} L={length} AS={5*4*w*LAMBDA} 
  + PS={10*LAMBDA+2*4*w} AD={5*4*w*LAMBDA} PD={10*LAMBDA+2*4*w}

  M2 y bbar l1 vdd CMOSP W={4*w} L={length} AS={5*4*w*LAMBDA} 
  + PS={10*LAMBDA+2*4*w} AD={5*4*w*LAMBDA} PD={10*LAMBDA+2*4*w}

  M3 l2 abar vdd vdd CMOSP W={4*w} L={length} AS={5*4*w*LAMBDA} 
  + PS={10*LAMBDA+2*4*w} AD={5*4*w*LAMBDA} PD={10*LAMBDA+2*4*w}

  M4 y b l2 vdd CMOSP W={4*w} L={length} AS={5*4*w*LAMBDA} 
  + PS={10*LAMBDA+2*4*w} AD={5*4*w*LAMBDA} PD={10*LAMBDA+2*4*w}


  M5 y a l3 gnd CMOSN W={2*w} L={length} AS={5*2*w*LAMBDA} 
  + PS={10*LAMBDA+2*2*w} AD={5*2*w*LAMBDA} PD={10*LAMBDA+2*2*w}

  M6 l3 b gnd gnd CMOSN W={2*w} L={length} AS={5*2*w*LAMBDA} 
  + PS={10*LAMBDA+2*2*w} AD={5*2*w*LAMBDA} PD={10*LAMBDA+2*2*w}

  M7 y abar l4 gnd CMOSN W={2*w} L={length} AS={5*2*w*LAMBDA} 
  + PS={10*LAMBDA+2*2*w} AD={5*2*w*LAMBDA} PD={10*LAMBDA+2*2*w}

  M8 l4 bbar gnd gnd CMOSN W={2*w} L={length} AS={5*2*w*LAMBDA} 
  + PS={10*LAMBDA+2*2*w} AD={5*2*w*LAMBDA} PD={10*LAMBDA+2*2*w}
.ends xor_ckt

.subckt pggen p g k x y w vdd gnd  
  x1 p x y w vdd gnd nor_ckt
  x2 g x y w vdd gnd nand_ckt
  x3 k x y w vdd gnd xor_ckt
.ends pggen

M1000 nand_3/a_13_n26# nand_4/a gnd Gnd cmosn w=12 l=2
+  ad=96 pd=40 as=3510 ps=2284
M1001 inv_5/in nand_4/a vdd inv_5/w_0_6# cmosp w=12 l=2
+  ad=96 pd=40 as=7020 ps=3668
M1002 vdd nor_1/a inv_5/in inv_5/w_0_6# cmosp w=12 l=2
+  ad=0 pd=0 as=0 ps=0
M1003 inv_5/in nor_1/a nand_3/a_13_n26# Gnd cmosn w=12 l=2
+  ad=60 pd=34 as=0 ps=0
M1004 nand_4/a_13_n26# nand_4/a gnd Gnd cmosn w=12 l=2
+  ad=96 pd=40 as=0 ps=0
M1005 inv_7/in nand_4/a vdd inv_7/w_0_6# cmosp w=12 l=2
+  ad=96 pd=40 as=0 ps=0
M1006 vdd nand_4/b inv_7/in inv_7/w_0_6# cmosp w=12 l=2
+  ad=0 pd=0 as=0 ps=0
M1007 inv_7/in nand_4/b nand_4/a_13_n26# Gnd cmosn w=12 l=2
+  ad=60 pd=34 as=0 ps=0
M1008 nand_5/a_13_n26# nand_5/a gnd Gnd cmosn w=12 l=2
+  ad=96 pd=40 as=0 ps=0
M1009 inv_8/in nand_5/a vdd inv_8/w_0_6# cmosp w=12 l=2
+  ad=96 pd=40 as=0 ps=0
M1010 vdd cin inv_8/in inv_8/w_0_6# cmosp w=12 l=2
+  ad=0 pd=0 as=0 ps=0
M1011 inv_8/in cin nand_5/a_13_n26# Gnd cmosn w=12 l=2
+  ad=60 pd=34 as=0 ps=0
M1012 cla_0/nand_0/a cla_0/inv_0/in vdd cla_0/inv_0/w_0_6# cmosp w=12 l=2
+  ad=60 pd=34 as=0 ps=0
M1013 cla_0/nand_0/a cla_0/inv_0/in gnd Gnd cmosn w=6 l=2
+  ad=30 pd=22 as=0 ps=0
M1014 cla_0/nor_0/a_13_6# cla_1/p0 vdd cla_0/nor_0/w_0_0# cmosp w=24 l=2
+  ad=192 pd=64 as=0 ps=0
M1015 gnd nor_0/a nand_4/b Gnd cmosn w=6 l=2
+  ad=0 pd=0 as=48 ps=28
M1016 nand_4/b nor_0/a cla_0/nor_0/a_13_6# cla_0/nor_0/w_0_0# cmosp w=24 l=2
+  ad=120 pd=58 as=0 ps=0
M1017 nand_4/b cla_1/p0 gnd Gnd cmosn w=6 l=2
+  ad=0 pd=0 as=0 ps=0
M1018 cla_0/nor_1/a_13_6# cla_1/p0 vdd cla_0/nor_1/w_0_0# cmosp w=24 l=2
+  ad=192 pd=64 as=0 ps=0
M1019 gnd nand_0/b cla_0/inv_0/in Gnd cmosn w=6 l=2
+  ad=0 pd=0 as=48 ps=28
M1020 cla_0/inv_0/in nand_0/b cla_0/nor_1/a_13_6# cla_0/nor_1/w_0_0# cmosp w=24 l=2
+  ad=120 pd=58 as=0 ps=0
M1021 cla_0/inv_0/in cla_1/p0 gnd Gnd cmosn w=6 l=2
+  ad=0 pd=0 as=0 ps=0
M1022 cla_0/nand_0/a_13_n26# cla_0/nand_0/a gnd Gnd cmosn w=12 l=2
+  ad=96 pd=40 as=0 ps=0
M1023 nor_1/a cla_0/nand_0/a vdd cla_0/nand_0/w_0_0# cmosp w=12 l=2
+  ad=96 pd=40 as=0 ps=0
M1024 vdd cla_1/nor_1/b nor_1/a cla_0/nand_0/w_0_0# cmosp w=12 l=2
+  ad=0 pd=0 as=0 ps=0
M1025 nor_1/a cla_1/nor_1/b cla_0/nand_0/a_13_n26# Gnd cmosn w=12 l=2
+  ad=60 pd=34 as=0 ps=0
M1026 cla_1/nand_0/a cla_1/inv_0/in vdd cla_1/inv_0/w_0_6# cmosp w=12 l=2
+  ad=60 pd=34 as=0 ps=0
M1027 cla_1/nand_0/a cla_1/inv_0/in gnd Gnd cmosn w=6 l=2
+  ad=30 pd=22 as=0 ps=0
M1028 cla_1/nor_0/a_13_6# cla_2/p0 vdd cla_1/nor_0/w_0_0# cmosp w=24 l=2
+  ad=192 pd=64 as=0 ps=0
M1029 gnd cla_1/p0 nand_2/a Gnd cmosn w=6 l=2
+  ad=0 pd=0 as=48 ps=28
M1030 nand_2/a cla_1/p0 cla_1/nor_0/a_13_6# cla_1/nor_0/w_0_0# cmosp w=24 l=2
+  ad=120 pd=58 as=0 ps=0
M1031 nand_2/a cla_2/p0 gnd Gnd cmosn w=6 l=2
+  ad=0 pd=0 as=0 ps=0
M1032 cla_1/nor_1/a_13_6# cla_2/p0 vdd cla_1/nor_1/w_0_0# cmosp w=24 l=2
+  ad=192 pd=64 as=0 ps=0
M1033 gnd cla_1/nor_1/b cla_1/inv_0/in Gnd cmosn w=6 l=2
+  ad=0 pd=0 as=48 ps=28
M1034 cla_1/inv_0/in cla_1/nor_1/b cla_1/nor_1/a_13_6# cla_1/nor_1/w_0_0# cmosp w=24 l=2
+  ad=120 pd=58 as=0 ps=0
M1035 cla_1/inv_0/in cla_2/p0 gnd Gnd cmosn w=6 l=2
+  ad=0 pd=0 as=0 ps=0
M1036 cla_1/nand_0/a_13_n26# cla_1/nand_0/a gnd Gnd cmosn w=12 l=2
+  ad=96 pd=40 as=0 ps=0
M1037 nor_2/a cla_1/nand_0/a vdd cla_1/nand_0/w_0_0# cmosp w=12 l=2
+  ad=96 pd=40 as=0 ps=0
M1038 vdd cla_2/nor_1/b nor_2/a cla_1/nand_0/w_0_0# cmosp w=12 l=2
+  ad=0 pd=0 as=0 ps=0
M1039 nor_2/a cla_2/nor_1/b cla_1/nand_0/a_13_n26# Gnd cmosn w=12 l=2
+  ad=60 pd=34 as=0 ps=0
M1040 cla_2/nand_0/a cla_2/inv_0/in vdd cla_2/inv_0/w_0_6# cmosp w=12 l=2
+  ad=60 pd=34 as=0 ps=0
M1041 cla_2/nand_0/a cla_2/inv_0/in gnd Gnd cmosn w=6 l=2
+  ad=30 pd=22 as=0 ps=0
M1042 cla_2/nor_0/a_13_6# cla_2/nor_1/a vdd cla_2/nor_0/w_0_0# cmosp w=24 l=2
+  ad=192 pd=64 as=0 ps=0
M1043 gnd cla_2/p0 nand_4/a Gnd cmosn w=6 l=2
+  ad=0 pd=0 as=48 ps=28
M1044 nand_4/a cla_2/p0 cla_2/nor_0/a_13_6# cla_2/nor_0/w_0_0# cmosp w=24 l=2
+  ad=120 pd=58 as=0 ps=0
M1045 nand_4/a cla_2/nor_1/a gnd Gnd cmosn w=6 l=2
+  ad=0 pd=0 as=0 ps=0
M1046 cla_2/nor_1/a_13_6# cla_2/nor_1/a vdd cla_2/nor_1/w_0_0# cmosp w=24 l=2
+  ad=192 pd=64 as=0 ps=0
M1047 gnd cla_2/nor_1/b cla_2/inv_0/in Gnd cmosn w=6 l=2
+  ad=0 pd=0 as=48 ps=28
M1048 cla_2/inv_0/in cla_2/nor_1/b cla_2/nor_1/a_13_6# cla_2/nor_1/w_0_0# cmosp w=24 l=2
+  ad=120 pd=58 as=0 ps=0
M1049 cla_2/inv_0/in cla_2/nor_1/a gnd Gnd cmosn w=6 l=2
+  ad=0 pd=0 as=0 ps=0
M1050 cla_2/nand_0/a_13_n26# cla_2/nand_0/a gnd Gnd cmosn w=12 l=2
+  ad=96 pd=40 as=0 ps=0
M1051 nor_3/a cla_2/nand_0/a vdd cla_2/nand_0/w_0_0# cmosp w=12 l=2
+  ad=96 pd=40 as=0 ps=0
M1052 vdd cla_2/nand_0/b nor_3/a cla_2/nand_0/w_0_0# cmosp w=12 l=2
+  ad=0 pd=0 as=0 ps=0
M1053 nor_3/a cla_2/nand_0/b cla_2/nand_0/a_13_n26# Gnd cmosn w=12 l=2
+  ad=60 pd=34 as=0 ps=0
M1054 sumffo_0/xor_0/inv_0/op sumffo_0/xor_0/a vdd sumffo_0/xor_0/inv_0/w_0_6# cmosp w=12 l=2
+  ad=60 pd=34 as=0 ps=0
M1055 sumffo_0/xor_0/inv_0/op sumffo_0/xor_0/a gnd Gnd cmosn w=6 l=2
+  ad=30 pd=22 as=0 ps=0
M1056 sumffo_0/xor_0/inv_1/op cin vdd sumffo_0/xor_0/inv_1/w_0_6# cmosp w=12 l=2
+  ad=60 pd=34 as=0 ps=0
M1057 sumffo_0/xor_0/inv_1/op cin gnd Gnd cmosn w=6 l=2
+  ad=30 pd=22 as=0 ps=0
M1058 s1 sumffo_0/xor_0/inv_0/op sumffo_0/xor_0/a_10_10# sumffo_0/xor_0/w_n3_4# cmosp w=24 l=2
+  ad=192 pd=64 as=432 ps=180
M1059 vdd cin sumffo_0/xor_0/a_10_10# sumffo_0/xor_0/w_n3_4# cmosp w=24 l=2
+  ad=0 pd=0 as=0 ps=0
M1060 gnd sumffo_0/xor_0/inv_1/op sumffo_0/xor_0/a_38_n43# Gnd cmosn w=12 l=2
+  ad=0 pd=0 as=96 ps=40
M1061 sumffo_0/xor_0/a_10_10# sumffo_0/xor_0/inv_1/op s1 sumffo_0/xor_0/w_n3_4# cmosp w=24 l=2
+  ad=0 pd=0 as=0 ps=0
M1062 sumffo_0/xor_0/a_10_n43# sumffo_0/xor_0/a gnd Gnd cmosn w=12 l=2
+  ad=96 pd=40 as=0 ps=0
M1063 sumffo_0/xor_0/a_38_n43# sumffo_0/xor_0/inv_0/op s1 Gnd cmosn w=12 l=2
+  ad=0 pd=0 as=120 ps=68
M1064 s1 cin sumffo_0/xor_0/a_10_n43# Gnd cmosn w=12 l=2
+  ad=0 pd=0 as=0 ps=0
M1065 sumffo_0/xor_0/a_10_10# sumffo_0/xor_0/a vdd sumffo_0/xor_0/w_n3_4# cmosp w=24 l=2
+  ad=0 pd=0 as=0 ps=0
M1066 ffipg_0/pggen_0/xor_0/inv_0/op x1in vdd ffipg_0/pggen_0/xor_0/inv_0/w_0_6# cmosp w=12 l=2
+  ad=60 pd=34 as=0 ps=0
M1067 ffipg_0/pggen_0/xor_0/inv_0/op x1in gnd Gnd cmosn w=6 l=2
+  ad=30 pd=22 as=0 ps=0
M1068 ffipg_0/pggen_0/xor_0/inv_1/op y1in vdd ffipg_0/pggen_0/xor_0/inv_1/w_0_6# cmosp w=12 l=2
+  ad=60 pd=34 as=0 ps=0
M1069 ffipg_0/pggen_0/xor_0/inv_1/op y1in gnd Gnd cmosn w=6 l=2
+  ad=30 pd=22 as=0 ps=0
M1070 sumffo_0/xor_0/a ffipg_0/pggen_0/xor_0/inv_0/op ffipg_0/pggen_0/xor_0/a_10_10# ffipg_0/pggen_0/xor_0/w_n3_4# cmosp w=24 l=2
+  ad=192 pd=64 as=432 ps=180
M1071 vdd y1in ffipg_0/pggen_0/xor_0/a_10_10# ffipg_0/pggen_0/xor_0/w_n3_4# cmosp w=24 l=2
+  ad=0 pd=0 as=0 ps=0
M1072 gnd ffipg_0/pggen_0/xor_0/inv_1/op ffipg_0/pggen_0/xor_0/a_38_n43# Gnd cmosn w=12 l=2
+  ad=0 pd=0 as=96 ps=40
M1073 ffipg_0/pggen_0/xor_0/a_10_10# ffipg_0/pggen_0/xor_0/inv_1/op sumffo_0/xor_0/a ffipg_0/pggen_0/xor_0/w_n3_4# cmosp w=24 l=2
+  ad=0 pd=0 as=0 ps=0
M1074 ffipg_0/pggen_0/xor_0/a_10_n43# x1in gnd Gnd cmosn w=12 l=2
+  ad=96 pd=40 as=0 ps=0
M1075 ffipg_0/pggen_0/xor_0/a_38_n43# ffipg_0/pggen_0/xor_0/inv_0/op sumffo_0/xor_0/a Gnd cmosn w=12 l=2
+  ad=0 pd=0 as=120 ps=68
M1076 sumffo_0/xor_0/a y1in ffipg_0/pggen_0/xor_0/a_10_n43# Gnd cmosn w=12 l=2
+  ad=0 pd=0 as=0 ps=0
M1077 ffipg_0/pggen_0/xor_0/a_10_10# x1in vdd ffipg_0/pggen_0/xor_0/w_n3_4# cmosp w=24 l=2
+  ad=0 pd=0 as=0 ps=0
M1078 ffipg_0/pggen_0/nor_0/a_13_6# y1in vdd ffipg_0/pggen_0/nor_0/w_0_0# cmosp w=24 l=2
+  ad=192 pd=64 as=0 ps=0
M1079 gnd x1in nor_0/a Gnd cmosn w=6 l=2
+  ad=0 pd=0 as=48 ps=28
M1080 nor_0/a x1in ffipg_0/pggen_0/nor_0/a_13_6# ffipg_0/pggen_0/nor_0/w_0_0# cmosp w=24 l=2
+  ad=120 pd=58 as=0 ps=0
M1081 nor_0/a y1in gnd Gnd cmosn w=6 l=2
+  ad=0 pd=0 as=0 ps=0
M1082 ffipg_0/pggen_0/nand_0/a_13_n26# x1in gnd Gnd cmosn w=12 l=2
+  ad=96 pd=40 as=0 ps=0
M1083 nand_0/b x1in vdd ffipg_0/pggen_0/nand_0/w_0_0# cmosp w=12 l=2
+  ad=96 pd=40 as=0 ps=0
M1084 vdd y1in nand_0/b ffipg_0/pggen_0/nand_0/w_0_0# cmosp w=12 l=2
+  ad=0 pd=0 as=0 ps=0
M1085 nand_0/b y1in ffipg_0/pggen_0/nand_0/a_13_n26# Gnd cmosn w=12 l=2
+  ad=60 pd=34 as=0 ps=0
M1086 sumffo_2/xor_0/inv_0/op inv_1/op vdd sumffo_2/xor_0/inv_0/w_0_6# cmosp w=12 l=2
+  ad=60 pd=34 as=0 ps=0
M1087 sumffo_2/xor_0/inv_0/op inv_1/op gnd Gnd cmosn w=6 l=2
+  ad=30 pd=22 as=0 ps=0
M1088 sumffo_2/xor_0/inv_1/op sumffo_2/xor_0/b vdd sumffo_2/xor_0/inv_1/w_0_6# cmosp w=12 l=2
+  ad=60 pd=34 as=0 ps=0
M1089 sumffo_2/xor_0/inv_1/op sumffo_2/xor_0/b gnd Gnd cmosn w=6 l=2
+  ad=30 pd=22 as=0 ps=0
M1090 s3 sumffo_2/xor_0/inv_0/op sumffo_2/xor_0/a_10_10# sumffo_2/xor_0/w_n3_4# cmosp w=24 l=2
+  ad=192 pd=64 as=432 ps=180
M1091 vdd sumffo_2/xor_0/b sumffo_2/xor_0/a_10_10# sumffo_2/xor_0/w_n3_4# cmosp w=24 l=2
+  ad=0 pd=0 as=0 ps=0
M1092 gnd sumffo_2/xor_0/inv_1/op sumffo_2/xor_0/a_38_n43# Gnd cmosn w=12 l=2
+  ad=0 pd=0 as=96 ps=40
M1093 sumffo_2/xor_0/a_10_10# sumffo_2/xor_0/inv_1/op s3 sumffo_2/xor_0/w_n3_4# cmosp w=24 l=2
+  ad=0 pd=0 as=0 ps=0
M1094 sumffo_2/xor_0/a_10_n43# inv_1/op gnd Gnd cmosn w=12 l=2
+  ad=96 pd=40 as=0 ps=0
M1095 sumffo_2/xor_0/a_38_n43# sumffo_2/xor_0/inv_0/op s3 Gnd cmosn w=12 l=2
+  ad=0 pd=0 as=120 ps=68
M1096 s3 sumffo_2/xor_0/b sumffo_2/xor_0/a_10_n43# Gnd cmosn w=12 l=2
+  ad=0 pd=0 as=0 ps=0
M1097 sumffo_2/xor_0/a_10_10# inv_1/op vdd sumffo_2/xor_0/w_n3_4# cmosp w=24 l=2
+  ad=0 pd=0 as=0 ps=0
M1098 sumffo_1/xor_0/inv_0/op sumffo_1/xor_0/a vdd sumffo_1/xor_0/inv_0/w_0_6# cmosp w=12 l=2
+  ad=60 pd=34 as=0 ps=0
M1099 sumffo_1/xor_0/inv_0/op sumffo_1/xor_0/a gnd Gnd cmosn w=6 l=2
+  ad=30 pd=22 as=0 ps=0
M1100 sumffo_1/xor_0/inv_1/op nand_2/b vdd sumffo_1/xor_0/inv_1/w_0_6# cmosp w=12 l=2
+  ad=60 pd=34 as=0 ps=0
M1101 sumffo_1/xor_0/inv_1/op nand_2/b gnd Gnd cmosn w=6 l=2
+  ad=30 pd=22 as=0 ps=0
M1102 s2 sumffo_1/xor_0/inv_0/op sumffo_1/xor_0/a_10_10# sumffo_1/xor_0/w_n3_4# cmosp w=24 l=2
+  ad=192 pd=64 as=432 ps=180
M1103 vdd nand_2/b sumffo_1/xor_0/a_10_10# sumffo_1/xor_0/w_n3_4# cmosp w=24 l=2
+  ad=0 pd=0 as=0 ps=0
M1104 gnd sumffo_1/xor_0/inv_1/op sumffo_1/xor_0/a_38_n43# Gnd cmosn w=12 l=2
+  ad=0 pd=0 as=96 ps=40
M1105 sumffo_1/xor_0/a_10_10# sumffo_1/xor_0/inv_1/op s2 sumffo_1/xor_0/w_n3_4# cmosp w=24 l=2
+  ad=0 pd=0 as=0 ps=0
M1106 sumffo_1/xor_0/a_10_n43# sumffo_1/xor_0/a gnd Gnd cmosn w=12 l=2
+  ad=96 pd=40 as=0 ps=0
M1107 sumffo_1/xor_0/a_38_n43# sumffo_1/xor_0/inv_0/op s2 Gnd cmosn w=12 l=2
+  ad=0 pd=0 as=120 ps=68
M1108 s2 nand_2/b sumffo_1/xor_0/a_10_n43# Gnd cmosn w=12 l=2
+  ad=0 pd=0 as=0 ps=0
M1109 sumffo_1/xor_0/a_10_10# sumffo_1/xor_0/a vdd sumffo_1/xor_0/w_n3_4# cmosp w=24 l=2
+  ad=0 pd=0 as=0 ps=0
M1110 ffipg_1/pggen_0/xor_0/inv_0/op x2in vdd ffipg_1/pggen_0/xor_0/inv_0/w_0_6# cmosp w=12 l=2
+  ad=60 pd=34 as=0 ps=0
M1111 ffipg_1/pggen_0/xor_0/inv_0/op x2in gnd Gnd cmosn w=6 l=2
+  ad=30 pd=22 as=0 ps=0
M1112 ffipg_1/pggen_0/xor_0/inv_1/op y2in vdd ffipg_1/pggen_0/xor_0/inv_1/w_0_6# cmosp w=12 l=2
+  ad=60 pd=34 as=0 ps=0
M1113 ffipg_1/pggen_0/xor_0/inv_1/op y2in gnd Gnd cmosn w=6 l=2
+  ad=30 pd=22 as=0 ps=0
M1114 sumffo_1/xor_0/a ffipg_1/pggen_0/xor_0/inv_0/op ffipg_1/pggen_0/xor_0/a_10_10# ffipg_1/pggen_0/xor_0/w_n3_4# cmosp w=24 l=2
+  ad=192 pd=64 as=432 ps=180
M1115 vdd y2in ffipg_1/pggen_0/xor_0/a_10_10# ffipg_1/pggen_0/xor_0/w_n3_4# cmosp w=24 l=2
+  ad=0 pd=0 as=0 ps=0
M1116 gnd ffipg_1/pggen_0/xor_0/inv_1/op ffipg_1/pggen_0/xor_0/a_38_n43# Gnd cmosn w=12 l=2
+  ad=0 pd=0 as=96 ps=40
M1117 ffipg_1/pggen_0/xor_0/a_10_10# ffipg_1/pggen_0/xor_0/inv_1/op sumffo_1/xor_0/a ffipg_1/pggen_0/xor_0/w_n3_4# cmosp w=24 l=2
+  ad=0 pd=0 as=0 ps=0
M1118 ffipg_1/pggen_0/xor_0/a_10_n43# x2in gnd Gnd cmosn w=12 l=2
+  ad=96 pd=40 as=0 ps=0
M1119 ffipg_1/pggen_0/xor_0/a_38_n43# ffipg_1/pggen_0/xor_0/inv_0/op sumffo_1/xor_0/a Gnd cmosn w=12 l=2
+  ad=0 pd=0 as=120 ps=68
M1120 sumffo_1/xor_0/a y2in ffipg_1/pggen_0/xor_0/a_10_n43# Gnd cmosn w=12 l=2
+  ad=0 pd=0 as=0 ps=0
M1121 ffipg_1/pggen_0/xor_0/a_10_10# x2in vdd ffipg_1/pggen_0/xor_0/w_n3_4# cmosp w=24 l=2
+  ad=0 pd=0 as=0 ps=0
M1122 ffipg_1/pggen_0/nor_0/a_13_6# y2in vdd ffipg_1/pggen_0/nor_0/w_0_0# cmosp w=24 l=2
+  ad=192 pd=64 as=0 ps=0
M1123 gnd x2in cla_1/p0 Gnd cmosn w=6 l=2
+  ad=0 pd=0 as=48 ps=28
M1124 cla_1/p0 x2in ffipg_1/pggen_0/nor_0/a_13_6# ffipg_1/pggen_0/nor_0/w_0_0# cmosp w=24 l=2
+  ad=120 pd=58 as=0 ps=0
M1125 cla_1/p0 y2in gnd Gnd cmosn w=6 l=2
+  ad=0 pd=0 as=0 ps=0
M1126 ffipg_1/pggen_0/nand_0/a_13_n26# x2in gnd Gnd cmosn w=12 l=2
+  ad=96 pd=40 as=0 ps=0
M1127 cla_1/nor_1/b x2in vdd ffipg_1/pggen_0/nand_0/w_0_0# cmosp w=12 l=2
+  ad=96 pd=40 as=0 ps=0
M1128 vdd y2in cla_1/nor_1/b ffipg_1/pggen_0/nand_0/w_0_0# cmosp w=12 l=2
+  ad=0 pd=0 as=0 ps=0
M1129 cla_1/nor_1/b y2in ffipg_1/pggen_0/nand_0/a_13_n26# Gnd cmosn w=12 l=2
+  ad=60 pd=34 as=0 ps=0
M1130 sumffo_3/xor_0/inv_0/op inv_4/op vdd sumffo_3/xor_0/inv_0/w_0_6# cmosp w=12 l=2
+  ad=60 pd=34 as=0 ps=0
M1131 sumffo_3/xor_0/inv_0/op inv_4/op gnd Gnd cmosn w=6 l=2
+  ad=30 pd=22 as=0 ps=0
M1132 sumffo_3/xor_0/inv_1/op sumffo_3/xor_0/b vdd sumffo_3/xor_0/inv_1/w_0_6# cmosp w=12 l=2
+  ad=60 pd=34 as=0 ps=0
M1133 sumffo_3/xor_0/inv_1/op sumffo_3/xor_0/b gnd Gnd cmosn w=6 l=2
+  ad=30 pd=22 as=0 ps=0
M1134 s4 sumffo_3/xor_0/inv_0/op sumffo_3/xor_0/a_10_10# sumffo_3/xor_0/w_n3_4# cmosp w=24 l=2
+  ad=192 pd=64 as=432 ps=180
M1135 vdd sumffo_3/xor_0/b sumffo_3/xor_0/a_10_10# sumffo_3/xor_0/w_n3_4# cmosp w=24 l=2
+  ad=0 pd=0 as=0 ps=0
M1136 gnd sumffo_3/xor_0/inv_1/op sumffo_3/xor_0/a_38_n43# Gnd cmosn w=12 l=2
+  ad=0 pd=0 as=96 ps=40
M1137 sumffo_3/xor_0/a_10_10# sumffo_3/xor_0/inv_1/op s4 sumffo_3/xor_0/w_n3_4# cmosp w=24 l=2
+  ad=0 pd=0 as=0 ps=0
M1138 sumffo_3/xor_0/a_10_n43# inv_4/op gnd Gnd cmosn w=12 l=2
+  ad=96 pd=40 as=0 ps=0
M1139 sumffo_3/xor_0/a_38_n43# sumffo_3/xor_0/inv_0/op s4 Gnd cmosn w=12 l=2
+  ad=0 pd=0 as=120 ps=68
M1140 s4 sumffo_3/xor_0/b sumffo_3/xor_0/a_10_n43# Gnd cmosn w=12 l=2
+  ad=0 pd=0 as=0 ps=0
M1141 sumffo_3/xor_0/a_10_10# inv_4/op vdd sumffo_3/xor_0/w_n3_4# cmosp w=24 l=2
+  ad=0 pd=0 as=0 ps=0
M1142 ffipg_2/pggen_0/xor_0/inv_0/op x3in vdd ffipg_2/pggen_0/xor_0/inv_0/w_0_6# cmosp w=12 l=2
+  ad=60 pd=34 as=0 ps=0
M1143 ffipg_2/pggen_0/xor_0/inv_0/op x3in gnd Gnd cmosn w=6 l=2
+  ad=30 pd=22 as=0 ps=0
M1144 ffipg_2/pggen_0/xor_0/inv_1/op y3in vdd ffipg_2/pggen_0/xor_0/inv_1/w_0_6# cmosp w=12 l=2
+  ad=60 pd=34 as=0 ps=0
M1145 ffipg_2/pggen_0/xor_0/inv_1/op y3in gnd Gnd cmosn w=6 l=2
+  ad=30 pd=22 as=0 ps=0
M1146 sumffo_2/xor_0/b ffipg_2/pggen_0/xor_0/inv_0/op ffipg_2/pggen_0/xor_0/a_10_10# ffipg_2/pggen_0/xor_0/w_n3_4# cmosp w=24 l=2
+  ad=192 pd=64 as=432 ps=180
M1147 vdd y3in ffipg_2/pggen_0/xor_0/a_10_10# ffipg_2/pggen_0/xor_0/w_n3_4# cmosp w=24 l=2
+  ad=0 pd=0 as=0 ps=0
M1148 gnd ffipg_2/pggen_0/xor_0/inv_1/op ffipg_2/pggen_0/xor_0/a_38_n43# Gnd cmosn w=12 l=2
+  ad=0 pd=0 as=96 ps=40
M1149 ffipg_2/pggen_0/xor_0/a_10_10# ffipg_2/pggen_0/xor_0/inv_1/op sumffo_2/xor_0/b ffipg_2/pggen_0/xor_0/w_n3_4# cmosp w=24 l=2
+  ad=0 pd=0 as=0 ps=0
M1150 ffipg_2/pggen_0/xor_0/a_10_n43# x3in gnd Gnd cmosn w=12 l=2
+  ad=96 pd=40 as=0 ps=0
M1151 ffipg_2/pggen_0/xor_0/a_38_n43# ffipg_2/pggen_0/xor_0/inv_0/op sumffo_2/xor_0/b Gnd cmosn w=12 l=2
+  ad=0 pd=0 as=120 ps=68
M1152 sumffo_2/xor_0/b y3in ffipg_2/pggen_0/xor_0/a_10_n43# Gnd cmosn w=12 l=2
+  ad=0 pd=0 as=0 ps=0
M1153 ffipg_2/pggen_0/xor_0/a_10_10# x3in vdd ffipg_2/pggen_0/xor_0/w_n3_4# cmosp w=24 l=2
+  ad=0 pd=0 as=0 ps=0
M1154 ffipg_2/pggen_0/nor_0/a_13_6# y3in vdd ffipg_2/pggen_0/nor_0/w_0_0# cmosp w=24 l=2
+  ad=192 pd=64 as=0 ps=0
M1155 gnd x3in cla_2/p0 Gnd cmosn w=6 l=2
+  ad=0 pd=0 as=48 ps=28
M1156 cla_2/p0 x3in ffipg_2/pggen_0/nor_0/a_13_6# ffipg_2/pggen_0/nor_0/w_0_0# cmosp w=24 l=2
+  ad=120 pd=58 as=0 ps=0
M1157 cla_2/p0 y3in gnd Gnd cmosn w=6 l=2
+  ad=0 pd=0 as=0 ps=0
M1158 ffipg_2/pggen_0/nand_0/a_13_n26# x3in gnd Gnd cmosn w=12 l=2
+  ad=96 pd=40 as=0 ps=0
M1159 cla_2/nor_1/b x3in vdd ffipg_2/pggen_0/nand_0/w_0_0# cmosp w=12 l=2
+  ad=96 pd=40 as=0 ps=0
M1160 vdd y3in cla_2/nor_1/b ffipg_2/pggen_0/nand_0/w_0_0# cmosp w=12 l=2
+  ad=0 pd=0 as=0 ps=0
M1161 cla_2/nor_1/b y3in ffipg_2/pggen_0/nand_0/a_13_n26# Gnd cmosn w=12 l=2
+  ad=60 pd=34 as=0 ps=0
M1162 ffipg_3/pggen_0/xor_0/inv_0/op x4in vdd ffipg_3/pggen_0/xor_0/inv_0/w_0_6# cmosp w=12 l=2
+  ad=60 pd=34 as=0 ps=0
M1163 ffipg_3/pggen_0/xor_0/inv_0/op x4in gnd Gnd cmosn w=6 l=2
+  ad=30 pd=22 as=0 ps=0
M1164 ffipg_3/pggen_0/xor_0/inv_1/op y4in vdd ffipg_3/pggen_0/xor_0/inv_1/w_0_6# cmosp w=12 l=2
+  ad=60 pd=34 as=0 ps=0
M1165 ffipg_3/pggen_0/xor_0/inv_1/op y4in gnd Gnd cmosn w=6 l=2
+  ad=30 pd=22 as=0 ps=0
M1166 sumffo_3/xor_0/b ffipg_3/pggen_0/xor_0/inv_0/op ffipg_3/pggen_0/xor_0/a_10_10# ffipg_3/pggen_0/xor_0/w_n3_4# cmosp w=24 l=2
+  ad=192 pd=64 as=432 ps=180
M1167 vdd y4in ffipg_3/pggen_0/xor_0/a_10_10# ffipg_3/pggen_0/xor_0/w_n3_4# cmosp w=24 l=2
+  ad=0 pd=0 as=0 ps=0
M1168 gnd ffipg_3/pggen_0/xor_0/inv_1/op ffipg_3/pggen_0/xor_0/a_38_n43# Gnd cmosn w=12 l=2
+  ad=0 pd=0 as=96 ps=40
M1169 ffipg_3/pggen_0/xor_0/a_10_10# ffipg_3/pggen_0/xor_0/inv_1/op sumffo_3/xor_0/b ffipg_3/pggen_0/xor_0/w_n3_4# cmosp w=24 l=2
+  ad=0 pd=0 as=0 ps=0
M1170 ffipg_3/pggen_0/xor_0/a_10_n43# x4in gnd Gnd cmosn w=12 l=2
+  ad=96 pd=40 as=0 ps=0
M1171 ffipg_3/pggen_0/xor_0/a_38_n43# ffipg_3/pggen_0/xor_0/inv_0/op sumffo_3/xor_0/b Gnd cmosn w=12 l=2
+  ad=0 pd=0 as=120 ps=68
M1172 sumffo_3/xor_0/b y4in ffipg_3/pggen_0/xor_0/a_10_n43# Gnd cmosn w=12 l=2
+  ad=0 pd=0 as=0 ps=0
M1173 ffipg_3/pggen_0/xor_0/a_10_10# x4in vdd ffipg_3/pggen_0/xor_0/w_n3_4# cmosp w=24 l=2
+  ad=0 pd=0 as=0 ps=0
M1174 ffipg_3/pggen_0/nor_0/a_13_6# y4in vdd ffipg_3/pggen_0/nor_0/w_0_0# cmosp w=24 l=2
+  ad=192 pd=64 as=0 ps=0
M1175 gnd x4in cla_2/nor_1/a Gnd cmosn w=6 l=2
+  ad=0 pd=0 as=48 ps=28
M1176 cla_2/nor_1/a x4in ffipg_3/pggen_0/nor_0/a_13_6# ffipg_3/pggen_0/nor_0/w_0_0# cmosp w=24 l=2
+  ad=120 pd=58 as=0 ps=0
M1177 cla_2/nor_1/a y4in gnd Gnd cmosn w=6 l=2
+  ad=0 pd=0 as=0 ps=0
M1178 ffipg_3/pggen_0/nand_0/a_13_n26# x4in gnd Gnd cmosn w=12 l=2
+  ad=96 pd=40 as=0 ps=0
M1179 cla_2/nand_0/b x4in vdd ffipg_3/pggen_0/nand_0/w_0_0# cmosp w=12 l=2
+  ad=96 pd=40 as=0 ps=0
M1180 vdd y4in cla_2/nand_0/b ffipg_3/pggen_0/nand_0/w_0_0# cmosp w=12 l=2
+  ad=0 pd=0 as=0 ps=0
M1181 cla_2/nand_0/b y4in ffipg_3/pggen_0/nand_0/a_13_n26# Gnd cmosn w=12 l=2
+  ad=60 pd=34 as=0 ps=0
M1182 nor_0/a_13_6# nor_0/a vdd nor_0/w_0_0# cmosp w=24 l=2
+  ad=192 pd=64 as=0 ps=0
M1183 gnd cinbar inv_0/in Gnd cmosn w=6 l=2
+  ad=0 pd=0 as=48 ps=28
M1184 inv_0/in cinbar nor_0/a_13_6# nor_0/w_0_0# cmosp w=24 l=2
+  ad=120 pd=58 as=0 ps=0
M1185 inv_0/in nor_0/a gnd Gnd cmosn w=6 l=2
+  ad=0 pd=0 as=0 ps=0
M1186 nand_0/a inv_0/in vdd nor_0/w_0_0# cmosp w=12 l=2
+  ad=60 pd=34 as=0 ps=0
M1187 nand_0/a inv_0/in gnd Gnd cmosn w=6 l=2
+  ad=30 pd=22 as=0 ps=0
M1188 nor_1/a_13_6# nor_1/a vdd nor_1/w_0_0# cmosp w=24 l=2
+  ad=192 pd=64 as=0 ps=0
M1189 gnd nor_1/b inv_1/in Gnd cmosn w=6 l=2
+  ad=0 pd=0 as=48 ps=28
M1190 inv_1/in nor_1/b nor_1/a_13_6# nor_1/w_0_0# cmosp w=24 l=2
+  ad=120 pd=58 as=0 ps=0
M1191 inv_1/in nor_1/a gnd Gnd cmosn w=6 l=2
+  ad=0 pd=0 as=0 ps=0
M1192 inv_1/op inv_1/in vdd nor_1/w_0_0# cmosp w=12 l=2
+  ad=60 pd=34 as=0 ps=0
M1193 inv_1/op inv_1/in gnd Gnd cmosn w=6 l=2
+  ad=30 pd=22 as=0 ps=0
M1194 nor_2/a_13_6# nor_2/a vdd nor_2/w_0_0# cmosp w=24 l=2
+  ad=192 pd=64 as=0 ps=0
M1195 gnd nor_2/b inv_4/in Gnd cmosn w=6 l=2
+  ad=0 pd=0 as=48 ps=28
M1196 inv_4/in nor_2/b nor_2/a_13_6# nor_2/w_0_0# cmosp w=24 l=2
+  ad=120 pd=58 as=0 ps=0
M1197 inv_4/in nor_2/a gnd Gnd cmosn w=6 l=2
+  ad=0 pd=0 as=0 ps=0
M1198 nor_1/b inv_2/in vdd inv_2/w_0_6# cmosp w=12 l=2
+  ad=60 pd=34 as=0 ps=0
M1199 nor_1/b inv_2/in gnd Gnd cmosn w=6 l=2
+  ad=30 pd=22 as=0 ps=0
M1200 nor_3/a_13_6# nor_3/a vdd nor_3/w_0_0# cmosp w=24 l=2
+  ad=192 pd=64 as=0 ps=0
M1201 gnd nor_3/b inv_6/in Gnd cmosn w=6 l=2
+  ad=0 pd=0 as=48 ps=28
M1202 inv_6/in nor_3/b nor_3/a_13_6# nor_3/w_0_0# cmosp w=24 l=2
+  ad=120 pd=58 as=0 ps=0
M1203 inv_6/in nor_3/a gnd Gnd cmosn w=6 l=2
+  ad=0 pd=0 as=0 ps=0
M1204 nor_2/b inv_3/in vdd inv_3/w_0_6# cmosp w=12 l=2
+  ad=60 pd=34 as=0 ps=0
M1205 nor_2/b inv_3/in gnd Gnd cmosn w=6 l=2
+  ad=30 pd=22 as=0 ps=0
M1206 nor_4/a_13_6# nor_4/a vdd nor_4/w_0_0# cmosp w=24 l=2
+  ad=192 pd=64 as=0 ps=0
M1207 gnd nor_4/b inv_9/in Gnd cmosn w=6 l=2
+  ad=0 pd=0 as=48 ps=28
M1208 inv_9/in nor_4/b nor_4/a_13_6# nor_4/w_0_0# cmosp w=24 l=2
+  ad=120 pd=58 as=0 ps=0
M1209 inv_9/in nor_4/a gnd Gnd cmosn w=6 l=2
+  ad=0 pd=0 as=0 ps=0
M1210 inv_4/op inv_4/in vdd nor_2/w_0_0# cmosp w=12 l=2
+  ad=60 pd=34 as=0 ps=0
M1211 inv_4/op inv_4/in gnd Gnd cmosn w=6 l=2
+  ad=30 pd=22 as=0 ps=0
M1212 nor_3/b inv_5/in vdd inv_5/w_0_6# cmosp w=12 l=2
+  ad=60 pd=34 as=0 ps=0
M1213 nor_3/b inv_5/in gnd Gnd cmosn w=6 l=2
+  ad=30 pd=22 as=0 ps=0
M1214 nand_5/a inv_7/in vdd inv_7/w_0_6# cmosp w=12 l=2
+  ad=60 pd=34 as=0 ps=0
M1215 nand_5/a inv_7/in gnd Gnd cmosn w=6 l=2
+  ad=30 pd=22 as=0 ps=0
M1216 nor_4/b inv_6/in vdd nor_3/w_0_0# cmosp w=12 l=2
+  ad=60 pd=34 as=0 ps=0
M1217 nor_4/b inv_6/in gnd Gnd cmosn w=6 l=2
+  ad=30 pd=22 as=0 ps=0
M1218 nor_4/a inv_8/in vdd inv_8/w_0_6# cmosp w=12 l=2
+  ad=60 pd=34 as=0 ps=0
M1219 nor_4/a inv_8/in gnd Gnd cmosn w=6 l=2
+  ad=30 pd=22 as=0 ps=0
M1220 cout inv_9/in vdd nor_4/w_0_0# cmosp w=12 l=2
+  ad=60 pd=34 as=0 ps=0
M1221 cout inv_9/in gnd Gnd cmosn w=6 l=2
+  ad=30 pd=22 as=0 ps=0
M1222 nand_0/a_13_n26# nand_0/a gnd Gnd cmosn w=12 l=2
+  ad=96 pd=40 as=0 ps=0
M1223 nand_2/b nand_0/a vdd nor_0/w_0_0# cmosp w=12 l=2
+  ad=96 pd=40 as=0 ps=0
M1224 vdd nand_0/b nand_2/b nor_0/w_0_0# cmosp w=12 l=2
+  ad=0 pd=0 as=0 ps=0
M1225 nand_2/b nand_0/b nand_0/a_13_n26# Gnd cmosn w=12 l=2
+  ad=60 pd=34 as=0 ps=0
M1226 nand_1/a_13_n26# nand_4/b gnd Gnd cmosn w=12 l=2
+  ad=96 pd=40 as=0 ps=0
M1227 inv_2/in nand_4/b vdd inv_2/w_0_6# cmosp w=12 l=2
+  ad=96 pd=40 as=0 ps=0
M1228 vdd cin inv_2/in inv_2/w_0_6# cmosp w=12 l=2
+  ad=0 pd=0 as=0 ps=0
M1229 inv_2/in cin nand_1/a_13_n26# Gnd cmosn w=12 l=2
+  ad=60 pd=34 as=0 ps=0
M1230 nand_2/a_13_n26# nand_2/a gnd Gnd cmosn w=12 l=2
+  ad=96 pd=40 as=0 ps=0
M1231 inv_3/in nand_2/a vdd inv_3/w_0_6# cmosp w=12 l=2
+  ad=96 pd=40 as=0 ps=0
M1232 vdd nand_2/b inv_3/in inv_3/w_0_6# cmosp w=12 l=2
+  ad=0 pd=0 as=0 ps=0
M1233 inv_3/in nand_2/b nand_2/a_13_n26# Gnd cmosn w=12 l=2
+  ad=60 pd=34 as=0 ps=0
C0 sumffo_0/xor_0/inv_0/w_0_6# vdd 0.09fF
C1 vdd inv_2/in 0.30fF
C2 cla_0/nand_0/w_0_0# nand_2/b 0.05fF
C3 cla_2/nor_1/b cla_1/nor_1/w_0_0# 0.02fF
C4 gnd ffipg_2/pggen_0/xor_0/inv_0/op 0.21fF
C5 ffipg_1/pggen_0/xor_0/inv_0/op y2in 0.20fF
C6 cla_2/nor_1/b cla_2/nor_1/a 0.30fF
C7 nand_4/b cin 0.33fF
C8 ffipg_2/pggen_0/xor_0/inv_0/op ffipg_2/pggen_0/xor_0/inv_0/w_0_6# 0.03fF
C9 nand_2/a nand_2/b 0.31fF
C10 vdd sumffo_1/xor_0/w_n3_4# 0.12fF
C11 cla_2/nand_0/a cla_2/inv_0/w_0_6# 0.03fF
C12 inv_1/in inv_1/op 0.04fF
C13 ffipg_1/pggen_0/xor_0/inv_0/w_0_6# x2in 0.06fF
C14 sumffo_0/xor_0/w_n3_4# sumffo_0/xor_0/inv_1/op 0.06fF
C15 sumffo_0/xor_0/w_n3_4# s1 0.02fF
C16 nand_0/a vdd 0.17fF
C17 cla_0/inv_0/in cla_0/inv_0/w_0_6# 0.06fF
C18 vdd sumffo_0/xor_0/inv_1/op 0.15fF
C19 nor_1/a sumffo_3/xor_0/b 0.06fF
C20 vdd cla_1/nor_1/w_0_0# 0.31fF
C21 gnd ffipg_0/pggen_0/xor_0/inv_1/op 0.20fF
C22 ffipg_3/pggen_0/xor_0/inv_0/w_0_6# x4in 0.06fF
C23 vdd cla_2/nor_1/a 0.31fF
C24 cla_0/nor_0/w_0_0# nor_0/a 0.06fF
C25 vdd sumffo_0/xor_0/inv_1/w_0_6# 0.07fF
C26 ffipg_0/pggen_0/xor_0/w_n3_4# sumffo_0/xor_0/a 0.02fF
C27 sumffo_1/xor_0/a sumffo_1/xor_0/inv_0/op 0.27fF
C28 cla_2/inv_0/in cla_2/inv_0/w_0_6# 0.06fF
C29 ffipg_2/pggen_0/nand_0/w_0_0# cla_2/p0 0.24fF
C30 ffipg_0/pggen_0/xor_0/inv_1/op ffipg_0/pggen_0/xor_0/inv_1/w_0_6# 0.03fF
C31 ffipg_0/pggen_0/xor_0/inv_0/op gnd 0.17fF
C32 cla_2/nor_1/a cla_2/nor_1/w_0_0# 0.06fF
C33 nor_2/a nor_2/b 0.39fF
C34 x3in cla_2/p0 0.22fF
C35 sumffo_3/xor_0/w_n3_4# sumffo_3/xor_0/inv_1/op 0.06fF
C36 cin sumffo_1/xor_0/a_10_10# 0.06fF
C37 inv_7/in nand_4/b 0.13fF
C38 cla_2/nand_0/w_0_0# gnd 0.08fF
C39 vdd inv_3/w_0_6# 0.15fF
C40 cin sumffo_0/xor_0/a 0.19fF
C41 vdd sumffo_3/xor_0/w_n3_4# 0.12fF
C42 vdd sumffo_2/xor_0/inv_1/w_0_6# 0.06fF
C43 cla_1/nor_1/b cla_2/p0 0.36fF
C44 inv_0/in gnd 0.24fF
C45 sumffo_1/xor_0/a sumffo_1/xor_0/inv_0/w_0_6# 0.06fF
C46 ffipg_0/pggen_0/nor_0/w_0_0# nor_0/a 0.05fF
C47 cla_2/nor_1/a sumffo_3/xor_0/b 0.05fF
C48 x1in ffipg_0/pggen_0/xor_0/inv_1/op 0.06fF
C49 nand_4/b cla_0/nand_0/w_0_0# 0.00fF
C50 sumffo_1/xor_0/w_n3_4# sumffo_1/xor_0/inv_0/op 0.06fF
C51 gnd inv_1/op 0.32fF
C52 nor_2/w_0_0# inv_4/in 0.11fF
C53 cla_1/inv_0/in cla_1/nor_1/w_0_0# 0.05fF
C54 cout vdd 0.15fF
C55 s2 sumffo_1/xor_0/inv_0/op 0.06fF
C56 cla_2/nor_1/a ffipg_3/pggen_0/nand_0/w_0_0# 0.24fF
C57 inv_9/in nor_4/a 0.02fF
C58 cla_0/nand_0/w_0_0# cla_1/nor_1/b 0.06fF
C59 ffipg_0/pggen_0/xor_0/inv_0/op x1in 0.27fF
C60 cla_2/nand_0/w_0_0# nor_3/a 0.04fF
C61 cla_2/nor_1/a x4in 0.22fF
C62 vdd cla_2/inv_0/w_0_6# 0.06fF
C63 sumffo_3/xor_0/b sumffo_3/xor_0/w_n3_4# 0.06fF
C64 sumffo_2/xor_0/inv_0/op sumffo_2/xor_0/inv_1/op 0.08fF
C65 cin nor_0/w_0_0# 0.16fF
C66 nor_1/a inv_1/in 0.02fF
C67 vdd nor_1/w_0_0# 0.17fF
C68 cla_0/nor_1/w_0_0# cla_1/nor_1/b 0.02fF
C69 ffipg_0/pggen_0/nor_0/w_0_0# y1in 0.06fF
C70 sumffo_2/xor_0/w_n3_4# s3 0.02fF
C71 ffipg_3/pggen_0/xor_0/inv_1/op ffipg_3/pggen_0/xor_0/inv_0/op 0.08fF
C72 cla_1/p0 sumffo_1/xor_0/a 0.05fF
C73 cla_2/nand_0/a cla_2/nand_0/b 0.35fF
C74 inv_3/w_0_6# inv_3/in 0.10fF
C75 ffipg_3/pggen_0/xor_0/inv_1/op vdd 0.15fF
C76 inv_5/in nand_4/a 0.05fF
C77 vdd ffipg_1/pggen_0/xor_0/inv_1/op 0.15fF
C78 x3in ffipg_2/pggen_0/xor_0/inv_0/op 0.27fF
C79 cla_1/p0 ffipg_1/pggen_0/nand_0/w_0_0# 0.24fF
C80 inv_4/in gnd 0.24fF
C81 cla_1/p0 x2in 0.22fF
C82 ffipg_2/pggen_0/xor_0/inv_1/op ffipg_2/pggen_0/xor_0/w_n3_4# 0.06fF
C83 ffipg_3/pggen_0/xor_0/inv_1/w_0_6# vdd 0.06fF
C84 ffipg_2/pggen_0/xor_0/inv_1/op sumffo_2/xor_0/b 0.52fF
C85 sumffo_3/xor_0/inv_0/w_0_6# inv_4/op 0.06fF
C86 sumffo_0/xor_0/a_10_10# sumffo_0/xor_0/w_n3_4# 0.16fF
C87 ffipg_3/pggen_0/xor_0/inv_0/w_0_6# gnd 0.02fF
C88 sumffo_2/xor_0/inv_0/op sumffo_2/xor_0/b 0.20fF
C89 inv_5/in gnd 0.19fF
C90 ffipg_1/pggen_0/xor_0/w_n3_4# gnd 0.02fF
C91 nand_4/a nor_1/a 0.32fF
C92 sumffo_0/xor_0/a_10_10# vdd 0.93fF
C93 nor_1/a nor_1/b 0.36fF
C94 s3 sumffo_2/xor_0/a_10_10# 0.45fF
C95 sumffo_1/xor_0/a gnd 0.39fF
C96 cla_2/inv_0/in cla_2/nand_0/b 0.04fF
C97 sumffo_3/xor_0/inv_1/op s4 0.52fF
C98 cla_1/nand_0/w_0_0# gnd 0.01fF
C99 ffipg_3/pggen_0/xor_0/inv_1/op sumffo_3/xor_0/b 0.52fF
C100 gnd x2in 0.31fF
C101 vdd cla_0/nor_0/w_0_0# 0.31fF
C102 nor_1/a gnd 0.61fF
C103 nor_1/b inv_2/in 0.04fF
C104 vdd sumffo_1/xor_0/inv_1/op 0.15fF